
     RDKit          3D

 44 46  0  0  0  0  0  0  0  0999 V2000
   -2.1733    3.3954    0.1257 O   0  0  0  0  0  0  0  0  0  0  0  0
   -0.9873    3.6318    0.0052 C   0  0  0  0  0  0  0  0  0  0  0  0
   -0.5264    4.8482   -0.3210 O   0  0  0  0  0  0  0  0  0  0  0  0
    0.1308    2.6900    0.1499 C   0  0  0  0  0  0  0  0  0  0  0  0
    0.0533    1.4782    0.7355 C   0  0  0  0  0  0  0  0  0  0  0  0
   -1.1494    0.8784    1.4521 C   0  0  0  0  0  0  0  0  0  0  0  0
   -1.9482   -0.2116    0.6807 C   0  0  2  0  0  0  0  0  0  0  0  0
   -1.0590   -1.3383    0.4818 O   0  0  0  0  0  0  0  0  0  0  0  0
   -2.4446    0.3213   -0.6790 C   0  0  0  0  0  0  0  0  0  0  0  0
   -3.2140   -0.6314   -1.4538 N   0  0  0  0  0  0  0  0  0  0  0  0
   -4.4229   -0.4514   -2.0458 C   0  0  0  0  0  0  0  0  0  0  0  0
   -4.7643   -1.5499   -2.6788 N   0  0  0  0  0  0  0  0  0  0  0  0
   -3.7129   -2.3874   -2.4365 C   0  0  0  0  0  0  0  0  0  0  0  0
   -2.7313   -1.8666   -1.6924 N   0  0  0  0  0  0  0  0  0  0  0  0
   -3.1581   -0.6025    1.5570 C   0  0  0  0  0  0  0  0  0  0  0  0
   -3.8594   -1.6332    1.0405 F   0  0  0  0  0  0  0  0  0  0  0  0
   -4.0170    0.4381    1.6811 F   0  0  0  0  0  0  0  0  0  0  0  0
   -2.7825   -0.9609    2.8058 F   0  0  0  0  0  0  0  0  0  0  0  0
    1.3066    0.6947    0.7866 C   0  0  0  0  0  0  0  0  0  0  0  0
    1.9904    0.5298    1.9945 C   0  0  0  0  0  0  0  0  0  0  0  0
    3.1865   -0.1914    2.0370 C   0  0  0  0  0  0  0  0  0  0  0  0
    3.7234   -0.7602    0.8723 C   0  0  0  0  0  0  0  0  0  0  0  0
    4.9240   -1.4880    0.8995 C   0  0  0  0  0  0  0  0  0  0  0  0
    5.4439   -2.0503   -0.2674 C   0  0  0  0  0  0  0  0  0  0  0  0
    4.7703   -1.8931   -1.4750 C   0  0  0  0  0  0  0  0  0  0  0  0
    3.5757   -1.1723   -1.5187 C   0  0  0  0  0  0  0  0  0  0  0  0
    3.0400   -0.5985   -0.3541 C   0  0  0  0  0  0  0  0  0  0  0  0
    1.8389    0.1309   -0.3820 C   0  0  0  0  0  0  0  0  0  0  0  0
   -1.3262    5.4097   -0.3905 H   0  0  0  0  0  0  0  0  0  0  0  0
    1.0714    3.0457   -0.2645 H   0  0  0  0  0  0  0  0  0  0  0  0
   -0.7935    0.4416    2.3959 H   0  0  0  0  0  0  0  0  0  0  0  0
   -1.8306    1.6778    1.7647 H   0  0  0  0  0  0  0  0  0  0  0  0
   -1.4943   -1.9488   -0.1570 H   0  0  0  0  0  0  0  0  0  0  0  0
   -3.0781    1.2033   -0.5470 H   0  0  0  0  0  0  0  0  0  0  0  0
   -1.6022    0.5904   -1.3266 H   0  0  0  0  0  0  0  0  0  0  0  0
   -4.9945    0.4650   -1.9908 H   0  0  0  0  0  0  0  0  0  0  0  0
   -3.6618   -3.4012   -2.8133 H   0  0  0  0  0  0  0  0  0  0  0  0
    1.6040    0.9637    2.9136 H   0  0  0  0  0  0  0  0  0  0  0  0
    3.6969   -0.3067    2.9905 H   0  0  0  0  0  0  0  0  0  0  0  0
    5.4632   -1.6246    1.8341 H   0  0  0  0  0  0  0  0  0  0  0  0
    6.3730   -2.6131   -0.2316 H   0  0  0  0  0  0  0  0  0  0  0  0
    5.1720   -2.3335   -2.3837 H   0  0  0  0  0  0  0  0  0  0  0  0
    3.0622   -1.0644   -2.4713 H   0  0  0  0  0  0  0  0  0  0  0  0
    1.3054    0.2456   -1.3231 H   0  0  0  0  0  0  0  0  0  0  0  0
  1  2  2  0
  2  3  1  0
  2  4  1  0
  4  5  2  0
  5  6  1  0
  6  7  1  0
  7  8  1  6
  7  9  1  0
  9 10  1  0
 10 11  1  0
 11 12  2  0
 12 13  1  0
 13 14  2  0
  7 15  1  0
 15 16  1  0
 15 17  1  0
 15 18  1  0
  5 19  1  0
 19 20  1  0
 20 21  2  0
 21 22  1  0
 22 23  2  0
 23 24  1  0
 24 25  2  0
 25 26  1  0
 26 27  2  0
 27 28  1  0
 14 10  1  0
 28 19  2  0
 27 22  1  0
  3 29  1  0
  4 30  1  0
  6 31  1  0
  6 32  1  0
  8 33  1  0
  9 34  1  0
  9 35  1  0
 11 36  1  0
 13 37  1  0
 20 38  1  0
 21 39  1  0
 23 40  1  0
 24 41  1  0
 25 42  1  0
 26 43  1  0
 28 44  1  0
M  END
$$$$
