
     RDKit          3D

 22 23  0  0  0  0  0  0  0  0999 V2000
   -3.8541   -0.6307    0.4927 C   0  0  0  0  0  0  0  0  0  0  0  0
   -2.6271    0.0062    1.0921 C   0  0  0  0  0  0  0  0  0  0  0  0
   -2.6688    0.4862    2.2276 O   0  0  0  0  0  0  0  0  0  0  0  0
   -1.3571    0.0291    0.3048 C   0  0  0  0  0  0  0  0  0  0  0  0
   -0.2186    0.1285    1.0111 C   0  0  0  0  0  0  0  0  0  0  0  0
    1.0701    0.1395    0.3403 C   0  0  0  0  0  0  0  0  0  0  0  0
    2.2733    0.2494    1.0400 C   0  0  0  0  0  0  0  0  0  0  0  0
    3.4878    0.2487    0.3462 C   0  0  0  0  0  0  0  0  0  0  0  0
    3.5043    0.1378   -1.0462 C   0  0  0  0  0  0  0  0  0  0  0  0
    2.3066    0.0279   -1.7500 C   0  0  0  0  0  0  0  0  0  0  0  0
    1.1056    0.0307   -1.0452 C   0  0  0  0  0  0  0  0  0  0  0  0
   -0.0839   -0.0780   -1.7863 O   0  0  0  0  0  0  0  0  0  0  0  0
   -1.3329   -0.0629   -1.1717 C   0  0  0  0  0  0  0  0  0  0  0  0
   -2.3577   -0.1186   -1.8419 O   0  0  0  0  0  0  0  0  0  0  0  0
   -3.5916   -1.5422   -0.0507 H   0  0  0  0  0  0  0  0  0  0  0  0
   -4.3626    0.0812   -0.1614 H   0  0  0  0  0  0  0  0  0  0  0  0
   -4.5361   -0.9190    1.2988 H   0  0  0  0  0  0  0  0  0  0  0  0
   -0.2245    0.1994    2.0959 H   0  0  0  0  0  0  0  0  0  0  0  0
    2.2816    0.3371    2.1240 H   0  0  0  0  0  0  0  0  0  0  0  0
    4.4240    0.3353    0.8934 H   0  0  0  0  0  0  0  0  0  0  0  0
    4.4513    0.1383   -1.5806 H   0  0  0  0  0  0  0  0  0  0  0  0
    2.3102   -0.0571   -2.8328 H   0  0  0  0  0  0  0  0  0  0  0  0
  1  2  1  0
  2  3  2  0
  2  4  1  0
  4  5  2  0
  5  6  1  0
  6  7  2  0
  7  8  1  0
  8  9  2  0
  9 10  1  0
 10 11  2  0
 11 12  1  0
 12 13  1  0
 13 14  2  0
 13  4  1  0
 11  6  1  0
  1 15  1  0
  1 16  1  0
  1 17  1  0
  5 18  1  0
  7 19  1  0
  8 20  1  0
  9 21  1  0
 10 22  1  0
M  END
$$$$
