
     RDKit          3D

 41 43  0  0  0  0  0  0  0  0999 V2000
   -1.6695   -0.4722   -1.3720 C   0  0  0  0  0  0  0  0  0  0  0  0
   -2.6841   -1.4318   -1.4124 C   0  0  0  0  0  0  0  0  0  0  0  0
   -3.0886   -2.0564   -0.2278 C   0  0  0  0  0  0  0  0  0  0  0  0
   -2.4904   -1.7209    0.9921 C   0  0  0  0  0  0  0  0  0  0  0  0
   -1.4770   -0.7589    1.0219 C   0  0  0  0  0  0  0  0  0  0  0  0
   -1.0444   -0.1317   -0.1594 C   0  0  0  0  0  0  0  0  0  0  0  0
    0.0595    0.9353   -0.1424 C   0  0  2  0  0  0  0  0  0  0  0  0
    1.3326    0.4318    0.5707 C   0  0  0  0  0  0  0  0  0  0  0  0
    1.6662    0.7416    1.8397 C   0  0  0  0  0  0  0  0  0  0  0  0
    2.9144    0.2661    2.4905 C   0  0  0  0  0  0  0  0  0  0  0  0
    3.1295    0.5916    3.6573 O   0  0  0  0  0  0  0  0  0  0  0  0
    3.7765   -0.5124    1.7612 O   0  0  0  0  0  0  0  0  0  0  0  0
    3.4555   -0.8686    0.4428 C   0  0  0  0  0  0  0  0  0  0  0  0
    4.3941   -1.6856   -0.1958 C   0  0  0  0  0  0  0  0  0  0  0  0
    4.1655   -2.1008   -1.5010 C   0  0  0  0  0  0  0  0  0  0  0  0
    3.0043   -1.6976   -2.1509 C   0  0  0  0  0  0  0  0  0  0  0  0
    2.0736   -0.8776   -1.4972 C   0  0  0  0  0  0  0  0  0  0  0  0
    2.2792   -0.4385   -0.1795 C   0  0  0  0  0  0  0  0  0  0  0  0
    0.8418    1.5150    2.6489 O   0  0  0  0  0  0  0  0  0  0  0  0
   -0.5234    2.2777    0.3579 C   0  0  0  0  0  0  0  0  0  0  0  0
   -1.4389    2.9357   -0.6614 C   0  0  0  0  0  0  0  0  0  0  0  0
   -1.3052    2.7747   -1.8746 O   0  0  0  0  0  0  0  0  0  0  0  0
   -2.4934    3.8622   -0.1146 C   0  0  0  0  0  0  0  0  0  0  0  0
   -4.1539   -3.0655   -0.2632 N   0  0  0  0  0  0  0  0  0  0  0  0
   -4.5156   -3.5604    0.8142 O   0  0  0  0  0  0  0  0  0  0  0  0
   -4.6306   -3.3637   -1.3677 O   0  0  0  0  0  0  0  0  0  0  0  0
   -1.3753    0.0200   -2.2992 H   0  0  0  0  0  0  0  0  0  0  0  0
   -3.1466   -1.6727   -2.3674 H   0  0  0  0  0  0  0  0  0  0  0  0
   -2.7989   -2.1934    1.9225 H   0  0  0  0  0  0  0  0  0  0  0  0
   -1.0297   -0.5030    1.9807 H   0  0  0  0  0  0  0  0  0  0  0  0
    0.3604    1.1331   -1.1790 H   0  0  0  0  0  0  0  0  0  0  0  0
    5.2954   -1.9955    0.3262 H   0  0  0  0  0  0  0  0  0  0  0  0
    4.8860   -2.7367   -2.0087 H   0  0  0  0  0  0  0  0  0  0  0  0
    2.8150   -2.0206   -3.1725 H   0  0  0  0  0  0  0  0  0  0  0  0
    1.1876   -0.6048   -2.0616 H   0  0  0  0  0  0  0  0  0  0  0  0
    1.3138    1.5805    3.5096 H   0  0  0  0  0  0  0  0  0  0  0  0
   -1.1037    2.1372    1.2771 H   0  0  0  0  0  0  0  0  0  0  0  0
    0.2761    3.0018    0.5552 H   0  0  0  0  0  0  0  0  0  0  0  0
   -3.1615    3.3066    0.5482 H   0  0  0  0  0  0  0  0  0  0  0  0
   -2.0149    4.6803    0.4292 H   0  0  0  0  0  0  0  0  0  0  0  0
   -3.0816    4.2782   -0.9373 H   0  0  0  0  0  0  0  0  0  0  0  0
  1  2  2  0
  2  3  1  0
  3  4  2  0
  4  5  1  0
  5  6  2  0
  6  7  1  0
  7  8  1  0
  8  9  2  0
  9 10  1  0
 10 11  2  0
 10 12  1  0
 12 13  1  0
 13 14  2  0
 14 15  1  0
 15 16  2  0
 16 17  1  0
 17 18  2  0
  9 19  1  0
  7 20  1  0
 20 21  1  0
 21 22  2  0
 21 23  1  0
  3 24  1  0
 24 25  2  0
 24 26  1  0
  6  1  1  0
 18  8  1  0
 18 13  1  0
  1 27  1  0
  2 28  1  0
  4 29  1  0
  5 30  1  0
  7 31  1  6
 14 32  1  0
 15 33  1  0
 16 34  1  0
 17 35  1  0
 19 36  1  0
 20 37  1  0
 20 38  1  0
 23 39  1  0
 23 40  1  0
 23 41  1  0
M  CHG  2  24   1  26  -1
M  END
$$$$
