
     RDKit          3D

 47 51  0  0  0  0  0  0  0  0999 V2000
   -0.1854   -0.9677    2.0728 O   0  0  0  0  0  0  0  0  0  0  0  0
   -1.1096   -0.9194    1.2705 C   0  0  0  0  0  0  0  0  0  0  0  0
   -2.1896   -1.7809    1.4166 O   0  0  0  0  0  0  0  0  0  0  0  0
   -3.3191   -1.7069    0.5893 C   0  0  0  0  0  0  0  0  0  0  0  0
   -4.3847   -2.5506    0.9037 C   0  0  0  0  0  0  0  0  0  0  0  0
   -5.5498   -2.4848    0.1466 C   0  0  0  0  0  0  0  0  0  0  0  0
   -5.6399   -1.5715   -0.9026 C   0  0  0  0  0  0  0  0  0  0  0  0
   -4.5587   -0.7341   -1.2058 C   0  0  0  0  0  0  0  0  0  0  0  0
   -3.3678   -0.8084   -0.4697 C   0  0  0  0  0  0  0  0  0  0  0  0
   -2.1815    0.0144   -0.7206 C   0  0  0  0  0  0  0  0  0  0  0  0
   -2.1853    0.8065   -1.8543 O   0  0  0  0  0  0  0  0  0  0  0  0
   -1.1183    0.0021    0.1072 C   0  0  0  0  0  0  0  0  0  0  0  0
    0.1168    0.8759   -0.1450 C   0  0  0  0  0  0  0  0  0  0  0  0
   -0.0165    2.3108    0.3829 C   0  0  0  0  0  0  0  0  0  0  0  0
    0.4906    3.3785   -0.3819 C   0  0  0  0  0  0  0  0  0  0  0  0
    0.3747    4.6980    0.0604 C   0  0  0  0  0  0  0  0  0  0  0  0
   -0.2433    4.9732    1.2769 C   0  0  0  0  0  0  0  0  0  0  0  0
   -0.7405    3.9297    2.0533 C   0  0  0  0  0  0  0  0  0  0  0  0
   -0.6280    2.6090    1.6118 C   0  0  0  0  0  0  0  0  0  0  0  0
    1.4626    0.1754    0.0597 C   0  0  0  0  0  0  0  0  0  0  0  0
    1.9337   -0.6971   -0.8542 C   0  0  0  0  0  0  0  0  0  0  0  0
    1.2217   -0.9540   -2.0133 O   0  0  0  0  0  0  0  0  0  0  0  0
    3.2057   -1.4020   -0.6765 C   0  0  0  0  0  0  0  0  0  0  0  0
    3.6771   -2.4226   -1.5146 C   0  0  0  0  0  0  0  0  0  0  0  0
    4.9176   -3.0280   -1.2758 C   0  0  0  0  0  0  0  0  0  0  0  0
    5.6972   -2.6303   -0.1909 C   0  0  0  0  0  0  0  0  0  0  0  0
    5.2299   -1.6385    0.6651 C   0  0  0  0  0  0  0  0  0  0  0  0
    3.9908   -1.0492    0.4133 C   0  0  0  0  0  0  0  0  0  0  0  0
    3.5466   -0.0925    1.3362 O   0  0  0  0  0  0  0  0  0  0  0  0
    2.2770    0.4764    1.2721 C   0  0  0  0  0  0  0  0  0  0  0  0
    1.9130    1.2181    2.1751 O   0  0  0  0  0  0  0  0  0  0  0  0
   -4.3086   -3.2418    1.7384 H   0  0  0  0  0  0  0  0  0  0  0  0
   -6.3914   -3.1309    0.3833 H   0  0  0  0  0  0  0  0  0  0  0  0
   -6.5584   -1.5019   -1.4813 H   0  0  0  0  0  0  0  0  0  0  0  0
   -4.6857   -0.0135   -2.0088 H   0  0  0  0  0  0  0  0  0  0  0  0
   -2.7032    0.3604   -2.5443 H   0  0  0  0  0  0  0  0  0  0  0  0
    0.0996    1.0497   -1.2337 H   0  0  0  0  0  0  0  0  0  0  0  0
    0.9775    3.1881   -1.3358 H   0  0  0  0  0  0  0  0  0  0  0  0
    0.7709    5.5100   -0.5430 H   0  0  0  0  0  0  0  0  0  0  0  0
   -0.3268    5.9982    1.6269 H   0  0  0  0  0  0  0  0  0  0  0  0
   -1.2033    4.1387    3.0141 H   0  0  0  0  0  0  0  0  0  0  0  0
   -0.9925    1.8158    2.2600 H   0  0  0  0  0  0  0  0  0  0  0  0
    1.8526   -1.1558   -2.7248 H   0  0  0  0  0  0  0  0  0  0  0  0
    3.0891   -2.7885   -2.3512 H   0  0  0  0  0  0  0  0  0  0  0  0
    5.2706   -3.8196   -1.9330 H   0  0  0  0  0  0  0  0  0  0  0  0
    6.6575   -3.1040   -0.0036 H   0  0  0  0  0  0  0  0  0  0  0  0
    5.8149   -1.3344    1.5286 H   0  0  0  0  0  0  0  0  0  0  0  0
  1  2  2  0
  2  3  1  0
  3  4  1  0
  4  5  2  0
  5  6  1  0
  6  7  2  0
  7  8  1  0
  8  9  2  0
  9 10  1  0
 10 11  1  0
 10 12  2  0
 12 13  1  0
 13 14  1  0
 14 15  2  0
 15 16  1  0
 16 17  2  0
 17 18  1  0
 18 19  2  0
 13 20  1  0
 20 21  2  0
 21 22  1  0
 21 23  1  0
 23 24  2  0
 24 25  1  0
 25 26  2  0
 26 27  1  0
 27 28  2  0
 28 29  1  0
 29 30  1  0
 30 31  2  0
 12  2  1  0
 19 14  1  0
 30 20  1  0
  9  4  1  0
 28 23  1  0
  5 32  1  0
  6 33  1  0
  7 34  1  0
  8 35  1  0
 11 36  1  0
 13 37  1  0
 15 38  1  0
 16 39  1  0
 17 40  1  0
 18 41  1  0
 19 42  1  0
 22 43  1  0
 24 44  1  0
 25 45  1  0
 26 46  1  0
 27 47  1  0
M  END
$$$$
