
     RDKit          3D

 42 45  0  0  0  0  0  0  0  0999 V2000
   -3.7287   -2.1065    0.9590 O   0  0  0  0  0  0  0  0  0  0  0  0
   -3.3658   -1.0575    0.0798 C   0  0  0  0  0  0  0  0  0  0  0  0
   -2.0506   -0.3827    0.4952 C   0  0  0  0  0  0  0  0  0  0  0  0
   -0.9171   -1.3880    0.5657 C   0  0  0  0  0  0  0  0  0  0  0  0
   -1.1269   -2.5741    0.8179 O   0  0  0  0  0  0  0  0  0  0  0  0
    0.4813   -0.9189    0.3576 C   0  0  0  0  0  0  0  0  0  0  0  0
    1.4515   -1.8594   -0.0026 C   0  0  0  0  0  0  0  0  0  0  0  0
    2.7766   -1.4628   -0.2098 C   0  0  0  0  0  0  0  0  0  0  0  0
    3.1634   -0.1223   -0.0549 C   0  0  0  0  0  0  0  0  0  0  0  0
    4.5578    0.2947   -0.2747 C   0  0  0  0  0  0  0  0  0  0  0  0
    5.2192   -0.0008   -1.4793 C   0  0  0  0  0  0  0  0  0  0  0  0
    6.5434    0.3955   -1.6919 C   0  0  0  0  0  0  0  0  0  0  0  0
    7.2230    1.0929   -0.6974 C   0  0  0  0  0  0  0  0  0  0  0  0
    9.0127    1.6295   -0.9812 Br  0  0  0  0  0  0  0  0  0  0  0  0
    6.5917    1.3971    0.5053 C   0  0  0  0  0  0  0  0  0  0  0  0
    5.2671    0.9998    0.7129 C   0  0  0  0  0  0  0  0  0  0  0  0
    2.1795    0.8086    0.3185 C   0  0  0  0  0  0  0  0  0  0  0  0
    0.8505    0.4184    0.5253 C   0  0  0  0  0  0  0  0  0  0  0  0
   -4.4805   -0.0742    0.0626 C   0  0  0  0  0  0  0  0  0  0  0  0
   -5.0884    0.6222    1.0958 C   0  0  0  0  0  0  0  0  0  0  0  0
   -6.1235    1.5055    0.7798 C   0  0  0  0  0  0  0  0  0  0  0  0
   -6.5348    1.6765   -0.5519 C   0  0  0  0  0  0  0  0  0  0  0  0
   -5.9187    0.9616   -1.5808 C   0  0  0  0  0  0  0  0  0  0  0  0
   -4.8982    0.0923   -1.2449 C   0  0  0  0  0  0  0  0  0  0  0  0
   -4.2186   -0.6726   -2.1727 O   0  0  0  0  0  0  0  0  0  0  0  0
   -3.3129   -1.4278   -1.4294 C   0  0  0  0  0  0  0  0  0  0  0  0
   -2.5562   -2.2454   -1.9379 O   0  0  0  0  0  0  0  0  0  0  0  0
   -2.9833   -2.7475    0.9372 H   0  0  0  0  0  0  0  0  0  0  0  0
   -2.1410    0.0586    1.4955 H   0  0  0  0  0  0  0  0  0  0  0  0
   -1.7985    0.4099   -0.2193 H   0  0  0  0  0  0  0  0  0  0  0  0
    1.1825   -2.9072   -0.1282 H   0  0  0  0  0  0  0  0  0  0  0  0
    3.5119   -2.2177   -0.4838 H   0  0  0  0  0  0  0  0  0  0  0  0
    4.6993   -0.5368   -2.2715 H   0  0  0  0  0  0  0  0  0  0  0  0
    7.0294    0.1561   -2.6341 H   0  0  0  0  0  0  0  0  0  0  0  0
    7.1180    1.9375    1.2876 H   0  0  0  0  0  0  0  0  0  0  0  0
    4.7930    1.2347    1.6642 H   0  0  0  0  0  0  0  0  0  0  0  0
    2.4444    1.8576    0.4438 H   0  0  0  0  0  0  0  0  0  0  0  0
    0.1332    1.1755    0.8280 H   0  0  0  0  0  0  0  0  0  0  0  0
   -4.7811    0.4742    2.1270 H   0  0  0  0  0  0  0  0  0  0  0  0
   -6.6224    2.0592    1.5723 H   0  0  0  0  0  0  0  0  0  0  0  0
   -7.3459    2.3640   -0.7811 H   0  0  0  0  0  0  0  0  0  0  0  0
   -6.2364    1.0801   -2.6113 H   0  0  0  0  0  0  0  0  0  0  0  0
  1  2  1  0
  2  3  1  0
  3  4  1  0
  4  5  2  0
  4  6  1  0
  6  7  1  0
  7  8  2  0
  8  9  1  0
  9 10  1  0
 10 11  1  0
 11 12  2  0
 12 13  1  0
 13 14  1  0
 13 15  2  0
 15 16  1  0
  9 17  2  0
 17 18  1  0
  2 19  1  0
 19 20  2  0
 20 21  1  0
 21 22  2  0
 22 23  1  0
 23 24  2  0
 24 25  1  0
 25 26  1  0
 26 27  2  0
 26  2  1  0
 18  6  2  0
 24 19  1  0
 16 10  2  0
  1 28  1  0
  3 29  1  0
  3 30  1  0
  7 31  1  0
  8 32  1  0
 11 33  1  0
 12 34  1  0
 15 35  1  0
 16 36  1  0
 17 37  1  0
 18 38  1  0
 20 39  1  0
 21 40  1  0
 22 41  1  0
 23 42  1  0
M  END
$$$$
