
     RDKit          3D

 17 18  0  0  0  0  0  0  0  0999 V2000
   -3.4779   -1.6464    0.1157 O   0  0  0  0  0  0  0  0  0  0  0  0
   -2.4419   -0.9929    0.0693 C   0  0  0  0  0  0  0  0  0  0  0  0
   -2.4862    0.4763   -0.0386 C   0  0  0  0  0  0  0  0  0  0  0  0
   -1.3811    1.2261   -0.0920 C   0  0  0  0  0  0  0  0  0  0  0  0
   -0.0786    0.5829   -0.0429 C   0  0  0  0  0  0  0  0  0  0  0  0
    1.1115    1.3114   -0.0946 C   0  0  0  0  0  0  0  0  0  0  0  0
    2.3412    0.6465   -0.0440 C   0  0  0  0  0  0  0  0  0  0  0  0
    2.3867   -0.7461    0.0583 C   0  0  0  0  0  0  0  0  0  0  0  0
    1.2030   -1.4800    0.1104 C   0  0  0  0  0  0  0  0  0  0  0  0
   -0.0147   -0.8056    0.0591 C   0  0  0  0  0  0  0  0  0  0  0  0
   -1.1872   -1.5842    0.1145 O   0  0  0  0  0  0  0  0  0  0  0  0
   -3.4759    0.9150   -0.0722 H   0  0  0  0  0  0  0  0  0  0  0  0
   -1.4371    2.3059   -0.1713 H   0  0  0  0  0  0  0  0  0  0  0  0
    1.0975    2.3955   -0.1742 H   0  0  0  0  0  0  0  0  0  0  0  0
    3.2668    1.2161   -0.0844 H   0  0  0  0  0  0  0  0  0  0  0  0
    3.3453   -1.2577    0.0972 H   0  0  0  0  0  0  0  0  0  0  0  0
    1.2288   -2.5628    0.1899 H   0  0  0  0  0  0  0  0  0  0  0  0
  1  2  2  0
  2  3  1  0
  3  4  2  0
  4  5  1  0
  5  6  2  0
  6  7  1  0
  7  8  2  0
  8  9  1  0
  9 10  2  0
 10 11  1  0
 11  2  1  0
 10  5  1  0
  3 12  1  0
  4 13  1  0
  6 14  1  0
  7 15  1  0
  8 16  1  0
  9 17  1  0
M  END
$$$$
