
     RDKit          3D

 43 46  0  0  0  0  0  0  0  0999 V2000
    0.0493   -1.5232   -1.9060 O   0  0  0  0  0  0  0  0  0  0  0  0
    0.1684   -0.3014   -1.1546 C   0  0  0  0  0  0  0  0  0  0  0  0
    1.6352    0.1338   -1.0869 C   0  0  0  0  0  0  0  0  0  0  0  0
    2.5053   -0.8630   -0.3547 C   0  0  0  0  0  0  0  0  0  0  0  0
    2.0433   -1.9260    0.0613 O   0  0  0  0  0  0  0  0  0  0  0  0
    3.9487   -0.5458   -0.1386 C   0  0  0  0  0  0  0  0  0  0  0  0
    4.5491    0.6054   -0.6636 C   0  0  0  0  0  0  0  0  0  0  0  0
    5.9041    0.8579   -0.4302 C   0  0  0  0  0  0  0  0  0  0  0  0
    6.6643   -0.0342    0.3246 C   0  0  0  0  0  0  0  0  0  0  0  0
    6.0743   -1.1828    0.8477 C   0  0  0  0  0  0  0  0  0  0  0  0
    4.7214   -1.4390    0.6169 C   0  0  0  0  0  0  0  0  0  0  0  0
   -0.6362   -0.2187    0.1683 C   0  0  0  0  0  0  0  0  0  0  0  0
   -1.5553   -1.3928    0.4924 C   0  0  0  0  0  0  0  0  0  0  0  0
   -2.4263   -1.1194    1.7236 C   0  0  0  0  0  0  0  0  0  0  0  0
   -3.0642    0.2722    1.8105 C   0  0  0  0  0  0  0  0  0  0  0  0
   -3.7064    0.7386    0.5249 C   0  0  0  0  0  0  0  0  0  0  0  0
   -5.1053    0.8023    0.4265 C   0  0  0  0  0  0  0  0  0  0  0  0
   -5.7098    1.2307   -0.7518 C   0  0  0  0  0  0  0  0  0  0  0  0
   -4.9237    1.5952   -1.8380 C   0  0  0  0  0  0  0  0  0  0  0  0
   -3.5321    1.5295   -1.7441 C   0  0  0  0  0  0  0  0  0  0  0  0
   -2.8796    1.1011   -0.5704 C   0  0  0  0  0  0  0  0  0  0  0  0
   -1.2941    1.0226   -0.4798 C   0  0  0  0  0  0  0  0  0  0  0  0
   -0.6184    0.7636   -1.7388 O   0  0  0  0  0  0  0  0  0  0  0  0
    0.4965   -2.1876   -1.3451 H   0  0  0  0  0  0  0  0  0  0  0  0
    2.0227    0.2450   -2.1065 H   0  0  0  0  0  0  0  0  0  0  0  0
    1.7096    1.1009   -0.5756 H   0  0  0  0  0  0  0  0  0  0  0  0
    3.9919    1.3202   -1.2619 H   0  0  0  0  0  0  0  0  0  0  0  0
    6.3690    1.7515   -0.8407 H   0  0  0  0  0  0  0  0  0  0  0  0
    7.7185    0.1644    0.5029 H   0  0  0  0  0  0  0  0  0  0  0  0
    6.6665   -1.8813    1.4341 H   0  0  0  0  0  0  0  0  0  0  0  0
    4.2743   -2.3415    1.0302 H   0  0  0  0  0  0  0  0  0  0  0  0
   -0.0146    0.0352    1.0373 H   0  0  0  0  0  0  0  0  0  0  0  0
   -0.9548   -2.2899    0.6861 H   0  0  0  0  0  0  0  0  0  0  0  0
   -2.1962   -1.6351   -0.3644 H   0  0  0  0  0  0  0  0  0  0  0  0
   -1.8216   -1.2672    2.6275 H   0  0  0  0  0  0  0  0  0  0  0  0
   -3.2149   -1.8820    1.7562 H   0  0  0  0  0  0  0  0  0  0  0  0
   -2.3129    1.0119    2.1166 H   0  0  0  0  0  0  0  0  0  0  0  0
   -3.8036    0.2688    2.6216 H   0  0  0  0  0  0  0  0  0  0  0  0
   -5.7307    0.5156    1.2687 H   0  0  0  0  0  0  0  0  0  0  0  0
   -6.7930    1.2762   -0.8237 H   0  0  0  0  0  0  0  0  0  0  0  0
   -5.3885    1.9247   -2.7632 H   0  0  0  0  0  0  0  0  0  0  0  0
   -2.9303    1.8061   -2.6092 H   0  0  0  0  0  0  0  0  0  0  0  0
   -0.8998    1.9576   -0.0550 H   0  0  0  0  0  0  0  0  0  0  0  0
  1  2  1  0
  2  3  1  0
  3  4  1  0
  4  5  2  0
  4  6  1  0
  6  7  2  0
  7  8  1  0
  8  9  2  0
  9 10  1  0
 10 11  2  0
  2 12  1  0
 12 13  1  0
 13 14  1  0
 14 15  1  0
 15 16  1  0
 16 17  2  0
 17 18  1  0
 18 19  2  0
 19 20  1  0
 20 21  2  0
 21 22  1  0
 22 23  1  0
 23  2  1  0
 11  6  1  0
 22 12  1  0
 21 16  1  0
  1 24  1  0
  3 25  1  0
  3 26  1  0
  7 27  1  0
  8 28  1  0
  9 29  1  0
 10 30  1  0
 11 31  1  0
 12 32  1  0
 13 33  1  0
 13 34  1  0
 14 35  1  0
 14 36  1  0
 15 37  1  0
 15 38  1  0
 17 39  1  0
 18 40  1  0
 19 41  1  0
 20 42  1  0
 22 43  1  0
M  END
$$$$
