
     RDKit          3D

 48 52  0  0  0  0  0  0  0  0999 V2000
    4.4725    2.1946    0.8779 O   0  0  0  0  0  0  0  0  0  0  0  0
    4.1720    0.8178    0.7385 C   0  0  0  0  0  0  0  0  0  0  0  0
    2.8594    0.5857   -0.0236 C   0  0  0  0  0  0  0  0  0  0  0  0
    1.6981    1.2845    0.6571 C   0  0  0  0  0  0  0  0  0  0  0  0
    1.8679    2.2975    1.3350 O   0  0  0  0  0  0  0  0  0  0  0  0
    0.3203    0.7497    0.4695 C   0  0  0  0  0  0  0  0  0  0  0  0
   -0.6632    1.1053    1.3998 C   0  0  0  0  0  0  0  0  0  0  0  0
   -1.9693    0.6273    1.2624 C   0  0  0  0  0  0  0  0  0  0  0  0
   -2.3160   -0.2062    0.1898 C   0  0  0  0  0  0  0  0  0  0  0  0
   -3.6898   -0.7124    0.0450 C   0  0  0  0  0  0  0  0  0  0  0  0
   -4.0197   -1.9246    0.6787 C   0  0  0  0  0  0  0  0  0  0  0  0
   -5.2990   -2.4611    0.5773 C   0  0  0  0  0  0  0  0  0  0  0  0
   -6.2720   -1.7937   -0.1608 C   0  0  0  0  0  0  0  0  0  0  0  0
   -5.9827   -0.5823   -0.8057 C   0  0  0  0  0  0  0  0  0  0  0  0
   -6.9789    0.0775   -1.5449 C   0  0  0  0  0  0  0  0  0  0  0  0
   -6.7139    1.2835   -2.1917 C   0  0  0  0  0  0  0  0  0  0  0  0
   -5.4480    1.8470   -2.1074 C   0  0  0  0  0  0  0  0  0  0  0  0
   -4.4468    1.2031   -1.3769 C   0  0  0  0  0  0  0  0  0  0  0  0
   -4.6827   -0.0227   -0.7099 C   0  0  0  0  0  0  0  0  0  0  0  0
   -1.3251   -0.5512   -0.7420 C   0  0  0  0  0  0  0  0  0  0  0  0
   -0.0160   -0.0758   -0.6082 C   0  0  0  0  0  0  0  0  0  0  0  0
    5.3116    0.1741    0.0338 C   0  0  0  0  0  0  0  0  0  0  0  0
    5.8959    0.4602   -1.1905 C   0  0  0  0  0  0  0  0  0  0  0  0
    6.9652   -0.3323   -1.6151 C   0  0  0  0  0  0  0  0  0  0  0  0
    7.4331   -1.3880   -0.8160 C   0  0  0  0  0  0  0  0  0  0  0  0
    6.8398   -1.6585    0.4186 C   0  0  0  0  0  0  0  0  0  0  0  0
    5.7848   -0.8608    0.8191 C   0  0  0  0  0  0  0  0  0  0  0  0
    5.1228   -1.0269    2.0199 O   0  0  0  0  0  0  0  0  0  0  0  0
    4.1696   -0.0103    2.0544 C   0  0  0  0  0  0  0  0  0  0  0  0
    3.4138    0.1582    3.0031 O   0  0  0  0  0  0  0  0  0  0  0  0
    3.7121    2.5894    1.3606 H   0  0  0  0  0  0  0  0  0  0  0  0
    2.6554   -0.4895   -0.0920 H   0  0  0  0  0  0  0  0  0  0  0  0
    2.9228    0.9989   -1.0379 H   0  0  0  0  0  0  0  0  0  0  0  0
   -0.4177    1.7523    2.2405 H   0  0  0  0  0  0  0  0  0  0  0  0
   -2.7207    0.9119    1.9971 H   0  0  0  0  0  0  0  0  0  0  0  0
   -3.2682   -2.4566    1.2596 H   0  0  0  0  0  0  0  0  0  0  0  0
   -5.5382   -3.3980    1.0734 H   0  0  0  0  0  0  0  0  0  0  0  0
   -7.2670   -2.2290   -0.2282 H   0  0  0  0  0  0  0  0  0  0  0  0
   -7.9780   -0.3465   -1.6218 H   0  0  0  0  0  0  0  0  0  0  0  0
   -7.4966    1.7811   -2.7580 H   0  0  0  0  0  0  0  0  0  0  0  0
   -5.2348    2.7885   -2.6067 H   0  0  0  0  0  0  0  0  0  0  0  0
   -3.4681    1.6764   -1.3305 H   0  0  0  0  0  0  0  0  0  0  0  0
   -1.5777   -1.1916   -1.5860 H   0  0  0  0  0  0  0  0  0  0  0  0
    0.7114   -0.3523   -1.3657 H   0  0  0  0  0  0  0  0  0  0  0  0
    5.5443    1.2888   -1.7982 H   0  0  0  0  0  0  0  0  0  0  0  0
    7.4463   -0.1250   -2.5685 H   0  0  0  0  0  0  0  0  0  0  0  0
    8.2700   -1.9926   -1.1583 H   0  0  0  0  0  0  0  0  0  0  0  0
    7.2009   -2.4658    1.0469 H   0  0  0  0  0  0  0  0  0  0  0  0
  1  2  1  0
  2  3  1  0
  3  4  1  0
  4  5  2  0
  4  6  1  0
  6  7  1  0
  7  8  2  0
  8  9  1  0
  9 10  1  0
 10 11  2  0
 11 12  1  0
 12 13  2  0
 13 14  1  0
 14 15  2  0
 15 16  1  0
 16 17  2  0
 17 18  1  0
 18 19  2  0
  9 20  2  0
 20 21  1  0
  2 22  1  0
 22 23  2  0
 23 24  1  0
 24 25  2  0
 25 26  1  0
 26 27  2  0
 27 28  1  0
 28 29  1  0
 29 30  2  0
 29  2  1  0
 21  6  2  0
 27 22  1  0
 19 10  1  0
 19 14  1  0
  1 31  1  0
  3 32  1  0
  3 33  1  0
  7 34  1  0
  8 35  1  0
 11 36  1  0
 12 37  1  0
 13 38  1  0
 15 39  1  0
 16 40  1  0
 17 41  1  0
 18 42  1  0
 20 43  1  0
 21 44  1  0
 23 45  1  0
 24 46  1  0
 25 47  1  0
 26 48  1  0
M  END
$$$$
