
     RDKit          3D

 32 34  0  0  0  0  0  0  0  0999 V2000
    1.3539   -1.1945    1.7462 O   0  0  0  0  0  0  0  0  0  0  0  0
    1.2335   -0.2464    0.7012 C   0  0  0  0  0  0  0  0  0  0  0  0
   -0.0140   -0.4891   -0.1603 C   0  0  0  0  0  0  0  0  0  0  0  0
   -1.2758   -0.4704    0.6810 C   0  0  0  0  0  0  0  0  0  0  0  0
   -1.2550   -0.7730    1.8738 O   0  0  0  0  0  0  0  0  0  0  0  0
   -2.5701   -0.1115    0.0363 C   0  0  0  0  0  0  0  0  0  0  0  0
   -2.7620   -0.2023   -1.3475 C   0  0  0  0  0  0  0  0  0  0  0  0
   -3.9957    0.1444   -1.9050 C   0  0  0  0  0  0  0  0  0  0  0  0
   -5.0385    0.5767   -1.0862 C   0  0  0  0  0  0  0  0  0  0  0  0
   -4.8546    0.6598    0.2929 C   0  0  0  0  0  0  0  0  0  0  0  0
   -3.6246    0.3138    0.8544 C   0  0  0  0  0  0  0  0  0  0  0  0
    2.4669   -0.3231   -0.1251 C   0  0  0  0  0  0  0  0  0  0  0  0
    3.0502   -1.3956   -0.7821 C   0  0  0  0  0  0  0  0  0  0  0  0
    4.2233   -1.1697   -1.5065 C   0  0  0  0  0  0  0  0  0  0  0  0
    4.7933    0.1124   -1.5609 C   0  0  0  0  0  0  0  0  0  0  0  0
    4.1989    1.1809   -0.8868 C   0  0  0  0  0  0  0  0  0  0  0  0
    3.0401    0.9341   -0.1753 C   0  0  0  0  0  0  0  0  0  0  0  0
    2.3658    1.9075    0.5357 O   0  0  0  0  0  0  0  0  0  0  0  0
    1.2936    1.2462    1.1327 C   0  0  0  0  0  0  0  0  0  0  0  0
    0.4953    1.8095    1.8710 O   0  0  0  0  0  0  0  0  0  0  0  0
    0.5347   -1.1086    2.2835 H   0  0  0  0  0  0  0  0  0  0  0  0
   -0.0798    0.2769   -0.9421 H   0  0  0  0  0  0  0  0  0  0  0  0
    0.0310   -1.4769   -0.6356 H   0  0  0  0  0  0  0  0  0  0  0  0
   -1.9773   -0.5537   -2.0107 H   0  0  0  0  0  0  0  0  0  0  0  0
   -4.1470    0.0730   -2.9797 H   0  0  0  0  0  0  0  0  0  0  0  0
   -5.9978    0.8452   -1.5224 H   0  0  0  0  0  0  0  0  0  0  0  0
   -5.6680    0.9933    0.9329 H   0  0  0  0  0  0  0  0  0  0  0  0
   -3.4905    0.3828    1.9327 H   0  0  0  0  0  0  0  0  0  0  0  0
    2.6175   -2.3900   -0.7233 H   0  0  0  0  0  0  0  0  0  0  0  0
    4.7053   -1.9954   -2.0256 H   0  0  0  0  0  0  0  0  0  0  0  0
    5.7098    0.2710   -2.1247 H   0  0  0  0  0  0  0  0  0  0  0  0
    4.6375    2.1727   -0.9152 H   0  0  0  0  0  0  0  0  0  0  0  0
  1  2  1  0
  2  3  1  0
  3  4  1  0
  4  5  2  0
  4  6  1  0
  6  7  2  0
  7  8  1  0
  8  9  2  0
  9 10  1  0
 10 11  2  0
  2 12  1  0
 12 13  2  0
 13 14  1  0
 14 15  2  0
 15 16  1  0
 16 17  2  0
 17 18  1  0
 18 19  1  0
 19 20  2  0
 19  2  1  0
 11  6  1  0
 17 12  1  0
  1 21  1  0
  3 22  1  0
  3 23  1  0
  7 24  1  0
  8 25  1  0
  9 26  1  0
 10 27  1  0
 11 28  1  0
 13 29  1  0
 14 30  1  0
 15 31  1  0
 16 32  1  0
M  END
$$$$
