
     RDKit          3D

 39 41  0  0  0  0  0  0  0  0999 V2000
   -4.3817    1.1301    0.5481 C   0  0  0  0  0  0  0  0  0  0  0  0
   -3.0576    1.8313    0.7004 C   0  0  0  0  0  0  0  0  0  0  0  0
   -2.9196    3.0121    0.3776 O   0  0  0  0  0  0  0  0  0  0  0  0
   -1.8923    1.0225    1.2337 C   0  0  0  0  0  0  0  0  0  0  0  0
   -0.9286    0.6339    0.0952 C   0  0  0  0  0  0  0  0  0  0  0  0
   -1.4852   -0.4478   -0.8324 C   0  0  0  0  0  0  0  0  0  0  0  0
   -1.9763   -1.6724   -0.3545 C   0  0  0  0  0  0  0  0  0  0  0  0
   -2.4705   -2.6366   -1.2362 C   0  0  0  0  0  0  0  0  0  0  0  0
   -2.4780   -2.3940   -2.6072 C   0  0  0  0  0  0  0  0  0  0  0  0
   -1.9876   -1.1880   -3.0998 C   0  0  0  0  0  0  0  0  0  0  0  0
   -1.4921   -0.2239   -2.2202 C   0  0  0  0  0  0  0  0  0  0  0  0
    0.4939    0.3069    0.5492 C   0  0  0  0  0  0  0  0  0  0  0  0
    1.5764    0.8364   -0.0501 C   0  0  0  0  0  0  0  0  0  0  0  0
    1.4402    1.6687   -1.1453 O   0  0  0  0  0  0  0  0  0  0  0  0
    2.9358    0.5231    0.3970 C   0  0  0  0  0  0  0  0  0  0  0  0
    4.0946    1.1422   -0.0915 C   0  0  0  0  0  0  0  0  0  0  0  0
    5.3584    0.7639    0.3788 C   0  0  0  0  0  0  0  0  0  0  0  0
    5.4797   -0.2289    1.3499 C   0  0  0  0  0  0  0  0  0  0  0  0
    4.3369   -0.8332    1.8641 C   0  0  0  0  0  0  0  0  0  0  0  0
    3.0859   -0.4416    1.3870 C   0  0  0  0  0  0  0  0  0  0  0  0
    1.9666   -1.0439    1.9810 O   0  0  0  0  0  0  0  0  0  0  0  0
    0.6731   -0.6411    1.6791 C   0  0  0  0  0  0  0  0  0  0  0  0
   -0.2720   -1.0810    2.3252 O   0  0  0  0  0  0  0  0  0  0  0  0
   -4.3218    0.3851   -0.2473 H   0  0  0  0  0  0  0  0  0  0  0  0
   -4.6581    0.6544    1.4924 H   0  0  0  0  0  0  0  0  0  0  0  0
   -5.1542    1.8605    0.2911 H   0  0  0  0  0  0  0  0  0  0  0  0
   -2.2943    0.1631    1.7786 H   0  0  0  0  0  0  0  0  0  0  0  0
   -1.3846    1.6544    1.9736 H   0  0  0  0  0  0  0  0  0  0  0  0
   -0.8633    1.5448   -0.5179 H   0  0  0  0  0  0  0  0  0  0  0  0
   -1.9811   -1.8992    0.7094 H   0  0  0  0  0  0  0  0  0  0  0  0
   -2.8473   -3.5803   -0.8494 H   0  0  0  0  0  0  0  0  0  0  0  0
   -2.8627   -3.1458   -3.2911 H   0  0  0  0  0  0  0  0  0  0  0  0
   -1.9895   -0.9964   -4.1696 H   0  0  0  0  0  0  0  0  0  0  0  0
   -1.1108    0.7113   -2.6274 H   0  0  0  0  0  0  0  0  0  0  0  0
    2.1959    1.5263   -1.7399 H   0  0  0  0  0  0  0  0  0  0  0  0
    4.0442    1.9419   -0.8254 H   0  0  0  0  0  0  0  0  0  0  0  0
    6.2497    1.2527   -0.0088 H   0  0  0  0  0  0  0  0  0  0  0  0
    6.4616   -0.5189    1.7155 H   0  0  0  0  0  0  0  0  0  0  0  0
    4.4164   -1.5924    2.6370 H   0  0  0  0  0  0  0  0  0  0  0  0
  1  2  1  0
  2  3  2  0
  2  4  1  0
  4  5  1  0
  5  6  1  0
  6  7  2  0
  7  8  1  0
  8  9  2  0
  9 10  1  0
 10 11  2  0
  5 12  1  0
 12 13  2  0
 13 14  1  0
 13 15  1  0
 15 16  2  0
 16 17  1  0
 17 18  2  0
 18 19  1  0
 19 20  2  0
 20 21  1  0
 21 22  1  0
 22 23  2  0
 11  6  1  0
 22 12  1  0
 20 15  1  0
  1 24  1  0
  1 25  1  0
  1 26  1  0
  4 27  1  0
  4 28  1  0
  5 29  1  0
  7 30  1  0
  8 31  1  0
  9 32  1  0
 10 33  1  0
 11 34  1  0
 14 35  1  0
 16 36  1  0
 17 37  1  0
 18 38  1  0
 19 39  1  0
M  END
$$$$
