
     RDKit          3D

 51 54  0  0  0  0  0  0  0  0999 V2000
   -2.0979   -0.1106   -2.0033 O   0  0  0  0  0  0  0  0  0  0  0  0
   -2.9341    0.1139   -0.8825 C   0  0  0  0  0  0  0  0  0  0  0  0
   -2.2086   -0.1369    0.4414 C   0  0  0  0  0  0  0  0  0  0  0  0
   -0.9712    0.7281    0.5536 C   0  0  0  0  0  0  0  0  0  0  0  0
   -0.2655    0.9979   -0.4129 O   0  0  0  0  0  0  0  0  0  0  0  0
   -0.5814    1.1792    1.9020 C   0  0  0  0  0  0  0  0  0  0  0  0
   -1.3953    2.0743    2.6041 C   0  0  0  0  0  0  0  0  0  0  0  0
   -1.0362    2.4570    3.8981 C   0  0  0  0  0  0  0  0  0  0  0  0
    0.1258    1.9469    4.4856 C   0  0  0  0  0  0  0  0  0  0  0  0
    0.9430    1.0597    3.7800 C   0  0  0  0  0  0  0  0  0  0  0  0
    0.5936    0.6966    2.4808 C   0  0  0  0  0  0  0  0  0  0  0  0
    1.3671   -0.2322    1.7813 O   0  0  0  0  0  0  0  0  0  0  0  0
    2.5446    0.3065    1.2586 C   0  0  0  0  0  0  0  0  0  0  0  0
    3.0264    1.3974    1.5261 O   0  0  0  0  0  0  0  0  0  0  0  0
    3.1579   -0.7241    0.3358 C   0  0  0  0  0  0  0  0  0  0  0  0
    4.3406   -0.1791   -0.4604 C   0  0  0  0  0  0  0  0  0  0  0  0
    5.0508   -1.2682   -1.2688 C   0  0  0  0  0  0  0  0  0  0  0  0
    5.7297   -0.5399   -2.4272 C   0  0  0  0  0  0  0  0  0  0  0  0
    5.1956    0.8892   -2.4095 C   0  0  0  0  0  0  0  0  0  0  0  0
    3.9512    0.8321   -1.5377 C   0  0  0  0  0  0  0  0  0  0  0  0
   -4.1183   -0.7731   -1.0174 C   0  0  0  0  0  0  0  0  0  0  0  0
   -4.2075   -2.1521   -1.1280 C   0  0  0  0  0  0  0  0  0  0  0  0
   -5.4764   -2.7263   -1.2279 C   0  0  0  0  0  0  0  0  0  0  0  0
   -6.6268   -1.9218   -1.2205 C   0  0  0  0  0  0  0  0  0  0  0  0
   -6.5205   -0.5325   -1.1196 C   0  0  0  0  0  0  0  0  0  0  0  0
   -5.2563    0.0133   -1.0193 C   0  0  0  0  0  0  0  0  0  0  0  0
   -5.0248    1.3704   -0.9092 O   0  0  0  0  0  0  0  0  0  0  0  0
   -3.6392    1.4965   -0.8375 C   0  0  0  0  0  0  0  0  0  0  0  0
   -3.0773    2.5780   -0.7075 O   0  0  0  0  0  0  0  0  0  0  0  0
   -1.3107    0.4640   -1.8806 H   0  0  0  0  0  0  0  0  0  0  0  0
   -1.8585   -1.1742    0.5041 H   0  0  0  0  0  0  0  0  0  0  0  0
   -2.8763    0.0411    1.2921 H   0  0  0  0  0  0  0  0  0  0  0  0
   -2.2927    2.4890    2.1512 H   0  0  0  0  0  0  0  0  0  0  0  0
   -1.6594    3.1583    4.4507 H   0  0  0  0  0  0  0  0  0  0  0  0
    0.3994    2.2496    5.4931 H   0  0  0  0  0  0  0  0  0  0  0  0
    1.8472    0.6708    4.2372 H   0  0  0  0  0  0  0  0  0  0  0  0
    2.3789   -1.0813   -0.3485 H   0  0  0  0  0  0  0  0  0  0  0  0
    3.4875   -1.5652    0.9581 H   0  0  0  0  0  0  0  0  0  0  0  0
    5.0686    0.2842    0.2209 H   0  0  0  0  0  0  0  0  0  0  0  0
    4.3316   -1.9948   -1.6674 H   0  0  0  0  0  0  0  0  0  0  0  0
    5.7720   -1.8210   -0.6578 H   0  0  0  0  0  0  0  0  0  0  0  0
    5.4891   -1.0327   -3.3751 H   0  0  0  0  0  0  0  0  0  0  0  0
    6.8183   -0.5511   -2.3206 H   0  0  0  0  0  0  0  0  0  0  0  0
    4.9837    1.2625   -3.4153 H   0  0  0  0  0  0  0  0  0  0  0  0
    5.9394    1.5546   -1.9546 H   0  0  0  0  0  0  0  0  0  0  0  0
    3.0985    0.4741   -2.1261 H   0  0  0  0  0  0  0  0  0  0  0  0
    3.6969    1.8138   -1.1289 H   0  0  0  0  0  0  0  0  0  0  0  0
   -3.3167   -2.7730   -1.1514 H   0  0  0  0  0  0  0  0  0  0  0  0
   -5.5738   -3.8069   -1.3171 H   0  0  0  0  0  0  0  0  0  0  0  0
   -7.6071   -2.3865   -1.3013 H   0  0  0  0  0  0  0  0  0  0  0  0
   -7.4047    0.0975   -1.1210 H   0  0  0  0  0  0  0  0  0  0  0  0
  1  2  1  0
  2  3  1  0
  3  4  1  0
  4  5  2  0
  4  6  1  0
  6  7  2  0
  7  8  1  0
  8  9  2  0
  9 10  1  0
 10 11  2  0
 11 12  1  0
 12 13  1  0
 13 14  2  0
 13 15  1  0
 15 16  1  0
 16 17  1  0
 17 18  1  0
 18 19  1  0
 19 20  1  0
  2 21  1  0
 21 22  2  0
 22 23  1  0
 23 24  2  0
 24 25  1  0
 25 26  2  0
 26 27  1  0
 27 28  1  0
 28 29  2  0
 28  2  1  0
 11  6  1  0
 20 16  1  0
 26 21  1  0
  1 30  1  0
  3 31  1  0
  3 32  1  0
  7 33  1  0
  8 34  1  0
  9 35  1  0
 10 36  1  0
 15 37  1  0
 15 38  1  0
 16 39  1  0
 17 40  1  0
 17 41  1  0
 18 42  1  0
 18 43  1  0
 19 44  1  0
 19 45  1  0
 20 46  1  0
 20 47  1  0
 22 48  1  0
 23 49  1  0
 24 50  1  0
 25 51  1  0
M  END
$$$$
