
     RDKit          3D

 32 33  0  0  0  0  0  0  0  0999 V2000
   -4.0046   -1.3023   -2.0576 O   0  0  0  0  0  0  0  0  0  0  0  0
   -3.0945   -1.0614   -1.0941 C   0  0  0  0  0  0  0  0  0  0  0  0
   -2.0480   -1.6822   -1.0668 O   0  0  0  0  0  0  0  0  0  0  0  0
   -3.5359   -0.0063   -0.1450 C   0  0  0  0  0  0  0  0  0  0  0  0
   -4.8332    0.5251   -0.2119 C   0  0  0  0  0  0  0  0  0  0  0  0
   -5.2513    1.4967    0.7035 C   0  0  0  0  0  0  0  0  0  0  0  0
   -4.3824    1.9440    1.6984 C   0  0  0  0  0  0  0  0  0  0  0  0
   -3.0906    1.4276    1.7781 C   0  0  0  0  0  0  0  0  0  0  0  0
   -2.6697    0.4703    0.8493 C   0  0  0  0  0  0  0  0  0  0  0  0
   -1.3720   -0.0277    0.9982 O   0  0  0  0  0  0  0  0  0  0  0  0
   -0.4672    0.6076    0.1654 C   0  0  0  0  0  0  0  0  0  0  0  0
   -0.6728    1.5620   -0.5690 O   0  0  0  0  0  0  0  0  0  0  0  0
    0.8369   -0.0706    0.3339 C   0  0  0  0  0  0  0  0  0  0  0  0
    1.9228    0.3993   -0.2982 C   0  0  0  0  0  0  0  0  0  0  0  0
    3.2564   -0.2053   -0.1876 C   0  0  0  0  0  0  0  0  0  0  0  0
    3.4484   -1.5928   -0.1452 C   0  0  0  0  0  0  0  0  0  0  0  0
    4.7362   -2.1295   -0.0664 C   0  0  0  0  0  0  0  0  0  0  0  0
    5.8445   -1.2857   -0.0399 C   0  0  0  0  0  0  0  0  0  0  0  0
    5.6670    0.0948   -0.0986 C   0  0  0  0  0  0  0  0  0  0  0  0
    4.3796    0.6318   -0.1781 C   0  0  0  0  0  0  0  0  0  0  0  0
   -3.5796   -1.9898   -2.6122 H   0  0  0  0  0  0  0  0  0  0  0  0
   -5.5330    0.1872   -0.9729 H   0  0  0  0  0  0  0  0  0  0  0  0
   -6.2586    1.9021    0.6400 H   0  0  0  0  0  0  0  0  0  0  0  0
   -4.7118    2.6972    2.4102 H   0  0  0  0  0  0  0  0  0  0  0  0
   -2.4128    1.7756    2.5526 H   0  0  0  0  0  0  0  0  0  0  0  0
    0.8606   -0.9398    0.9791 H   0  0  0  0  0  0  0  0  0  0  0  0
    1.8532    1.2889   -0.9225 H   0  0  0  0  0  0  0  0  0  0  0  0
    2.6013   -2.2733   -0.1874 H   0  0  0  0  0  0  0  0  0  0  0  0
    4.8728   -3.2074   -0.0332 H   0  0  0  0  0  0  0  0  0  0  0  0
    6.8459   -1.7039    0.0195 H   0  0  0  0  0  0  0  0  0  0  0  0
    6.5301    0.7552   -0.0852 H   0  0  0  0  0  0  0  0  0  0  0  0
    4.2622    1.7124   -0.2254 H   0  0  0  0  0  0  0  0  0  0  0  0
  1  2  1  0
  2  3  2  0
  2  4  1  0
  4  5  2  0
  5  6  1  0
  6  7  2  0
  7  8  1  0
  8  9  2  0
  9 10  1  0
 10 11  1  0
 11 12  2  0
 11 13  1  0
 13 14  2  0
 14 15  1  0
 15 16  2  0
 16 17  1  0
 17 18  2  0
 18 19  1  0
 19 20  2  0
  9  4  1  0
 20 15  1  0
  1 21  1  0
  5 22  1  0
  6 23  1  0
  7 24  1  0
  8 25  1  0
 13 26  1  0
 14 27  1  0
 16 28  1  0
 17 29  1  0
 18 30  1  0
 19 31  1  0
 20 32  1  0
M  END
$$$$
