
     RDKit          3D

 37 39  0  0  0  0  0  0  0  0999 V2000
   -2.5618    3.3252    1.5794 C   0  0  0  0  0  0  0  0  0  0  0  0
   -2.4792    2.4076    0.3901 C   0  0  0  0  0  0  0  0  0  0  0  0
   -3.2986    2.4559   -0.5235 O   0  0  0  0  0  0  0  0  0  0  0  0
   -1.4046    1.5739    0.4311 N   0  0  0  0  0  0  0  0  0  0  0  0
   -1.0598    0.5895   -0.5794 C   0  0  2  0  0  0  0  0  0  0  0  0
   -1.8789   -0.6840   -0.3623 C   0  0  0  0  0  0  0  0  0  0  0  0
   -2.8158   -1.0953   -1.3230 C   0  0  0  0  0  0  0  0  0  0  0  0
   -3.5697   -2.2554   -1.1330 C   0  0  0  0  0  0  0  0  0  0  0  0
   -3.3992   -3.0184    0.0210 C   0  0  0  0  0  0  0  0  0  0  0  0
   -2.4766   -2.6211    0.9868 C   0  0  0  0  0  0  0  0  0  0  0  0
   -1.7232   -1.4612    0.7978 C   0  0  0  0  0  0  0  0  0  0  0  0
    0.4558    0.3213   -0.5889 C   0  0  0  0  0  0  0  0  0  0  0  0
    1.3106    0.5645    0.4513 C   0  0  0  0  0  0  0  0  0  0  0  0
    1.0020    1.0451    1.5878 O   0  0  0  0  0  0  0  0  0  0  0  0
    2.7388    0.1948    0.1712 C   0  0  0  0  0  0  0  0  0  0  0  0
    3.7576    0.3850    1.1256 C   0  0  0  0  0  0  0  0  0  0  0  0
    5.0877    0.0300    0.8688 C   0  0  0  0  0  0  0  0  0  0  0  0
    5.4332   -0.5286   -0.3572 C   0  0  0  0  0  0  0  0  0  0  0  0
    4.4468   -0.7269   -1.3179 C   0  0  0  0  0  0  0  0  0  0  0  0
    3.1228   -0.3636   -1.0410 C   0  0  0  0  0  0  0  0  0  0  0  0
    2.2048   -0.5898   -2.0668 O   0  0  0  0  0  0  0  0  0  0  0  0
    0.8822   -0.2246   -1.9094 C   0  0  0  0  0  0  0  0  0  0  0  0
    0.1088   -0.3564   -2.8575 O   0  0  0  0  0  0  0  0  0  0  0  0
   -1.9388    4.2053    1.3993 H   0  0  0  0  0  0  0  0  0  0  0  0
   -3.5993    3.6375    1.7279 H   0  0  0  0  0  0  0  0  0  0  0  0
   -2.2198    2.8192    2.4869 H   0  0  0  0  0  0  0  0  0  0  0  0
   -0.7082    1.6238    1.1849 H   0  0  0  0  0  0  0  0  0  0  0  0
   -1.3489    1.0488   -1.5339 H   0  0  0  0  0  0  0  0  0  0  0  0
   -2.9572   -0.5050   -2.2261 H   0  0  0  0  0  0  0  0  0  0  0  0
   -4.2886   -2.5588   -1.8879 H   0  0  0  0  0  0  0  0  0  0  0  0
   -3.9848   -3.9203    0.1684 H   0  0  0  0  0  0  0  0  0  0  0  0
   -2.3375   -3.2083    1.8894 H   0  0  0  0  0  0  0  0  0  0  0  0
   -1.0047   -1.1553    1.5583 H   0  0  0  0  0  0  0  0  0  0  0  0
    3.5044    0.8183    2.0918 H   0  0  0  0  0  0  0  0  0  0  0  0
    5.8409    0.1934    1.6333 H   0  0  0  0  0  0  0  0  0  0  0  0
    6.4618   -0.8065   -0.5623 H   0  0  0  0  0  0  0  0  0  0  0  0
    4.6972   -1.1597   -2.2811 H   0  0  0  0  0  0  0  0  0  0  0  0
  1  2  1  0
  2  3  2  0
  2  4  1  0
  4  5  1  0
  5  6  1  0
  6  7  2  0
  7  8  1  0
  8  9  2  0
  9 10  1  0
 10 11  2  0
  5 12  1  0
 12 13  2  0
 13 14  1  0
 13 15  1  0
 15 16  2  0
 16 17  1  0
 17 18  2  0
 18 19  1  0
 19 20  2  0
 20 21  1  0
 21 22  1  0
 22 23  2  0
 11  6  1  0
 22 12  1  0
 20 15  1  0
  1 24  1  0
  1 25  1  0
  1 26  1  0
  4 27  1  0
  5 28  1  6
  7 29  1  0
  8 30  1  0
  9 31  1  0
 10 32  1  0
 11 33  1  0
 16 34  1  0
 17 35  1  0
 18 36  1  0
 19 37  1  0
M  CHG  1  14  -1
M  END
$$$$
