
     RDKit          3D

 37 39  0  0  0  0  0  0  0  0999 V2000
   -2.2028    3.8482   -0.5731 C   0  0  0  0  0  0  0  0  0  0  0  0
   -2.1703    2.7009    0.3996 C   0  0  0  0  0  0  0  0  0  0  0  0
   -2.9239    2.6515    1.3682 O   0  0  0  0  0  0  0  0  0  0  0  0
   -1.2148    1.7777    0.1063 N   0  0  0  0  0  0  0  0  0  0  0  0
   -0.9415    0.5729    0.8698 C   0  0  1  0  0  0  0  0  0  0  0  0
   -1.9272   -0.5271    0.4716 C   0  0  0  0  0  0  0  0  0  0  0  0
   -1.9378   -1.0598   -0.8285 C   0  0  0  0  0  0  0  0  0  0  0  0
   -2.8423   -2.0626   -1.1820 C   0  0  0  0  0  0  0  0  0  0  0  0
   -3.7517   -2.5442   -0.2425 C   0  0  0  0  0  0  0  0  0  0  0  0
   -3.7579   -2.0223    1.0500 C   0  0  0  0  0  0  0  0  0  0  0  0
   -2.8528   -1.0196    1.4046 C   0  0  0  0  0  0  0  0  0  0  0  0
    0.5256    0.1387    0.7023 C   0  0  0  0  0  0  0  0  0  0  0  0
    1.3441    0.4937   -0.3351 C   0  0  0  0  0  0  0  0  0  0  0  0
    1.0354    1.2309   -1.3244 O   0  0  0  0  0  0  0  0  0  0  0  0
    2.7271   -0.0852   -0.2512 C   0  0  0  0  0  0  0  0  0  0  0  0
    3.7061    0.1819   -1.2286 C   0  0  0  0  0  0  0  0  0  0  0  0
    4.9926   -0.3668   -1.1567 C   0  0  0  0  0  0  0  0  0  0  0  0
    5.3330   -1.2025   -0.0983 C   0  0  0  0  0  0  0  0  0  0  0  0
    4.3855   -1.4824    0.8810 C   0  0  0  0  0  0  0  0  0  0  0  0
    3.1050   -0.9222    0.7906 C   0  0  0  0  0  0  0  0  0  0  0  0
    2.2253   -1.2505    1.8224 O   0  0  0  0  0  0  0  0  0  0  0  0
    0.9532   -0.7133    1.8489 C   0  0  0  0  0  0  0  0  0  0  0  0
    0.2243   -0.9501    2.8117 O   0  0  0  0  0  0  0  0  0  0  0  0
   -3.1987    4.2998   -0.5716 H   0  0  0  0  0  0  0  0  0  0  0  0
   -1.9800    3.5056   -1.5878 H   0  0  0  0  0  0  0  0  0  0  0  0
   -1.4635    4.5957   -0.2732 H   0  0  0  0  0  0  0  0  0  0  0  0
   -0.5616    1.9034   -0.6767 H   0  0  0  0  0  0  0  0  0  0  0  0
   -1.1151    0.8543    1.9167 H   0  0  0  0  0  0  0  0  0  0  0  0
   -1.2304   -0.6864   -1.5691 H   0  0  0  0  0  0  0  0  0  0  0  0
   -2.8306   -2.4621   -2.1915 H   0  0  0  0  0  0  0  0  0  0  0  0
   -4.4549   -3.3239   -0.5178 H   0  0  0  0  0  0  0  0  0  0  0  0
   -4.4657   -2.3921    1.7856 H   0  0  0  0  0  0  0  0  0  0  0  0
   -2.8665   -0.6169    2.4153 H   0  0  0  0  0  0  0  0  0  0  0  0
    3.4558    0.8316   -2.0656 H   0  0  0  0  0  0  0  0  0  0  0  0
    5.7159   -0.1349   -1.9323 H   0  0  0  0  0  0  0  0  0  0  0  0
    6.3279   -1.6313   -0.0370 H   0  0  0  0  0  0  0  0  0  0  0  0
    4.6329   -2.1307    1.7154 H   0  0  0  0  0  0  0  0  0  0  0  0
  1  2  1  0
  2  3  2  0
  2  4  1  0
  4  5  1  0
  5  6  1  0
  6  7  2  0
  7  8  1  0
  8  9  2  0
  9 10  1  0
 10 11  2  0
  5 12  1  0
 12 13  2  0
 13 14  1  0
 13 15  1  0
 15 16  2  0
 16 17  1  0
 17 18  2  0
 18 19  1  0
 19 20  2  0
 20 21  1  0
 21 22  1  0
 22 23  2  0
 11  6  1  0
 22 12  1  0
 20 15  1  0
  1 24  1  0
  1 25  1  0
  1 26  1  0
  4 27  1  0
  5 28  1  1
  7 29  1  0
  8 30  1  0
  9 31  1  0
 10 32  1  0
 11 33  1  0
 16 34  1  0
 17 35  1  0
 18 36  1  0
 19 37  1  0
M  CHG  1  14  -1
M  END
$$$$
