
     RDKit          3D

 37 39  0  0  0  0  0  0  0  0999 V2000
   -2.2454    3.8818    0.0754 C   0  0  0  0  0  0  0  0  0  0  0  0
   -2.3327    2.5119   -0.5401 C   0  0  0  0  0  0  0  0  0  0  0  0
   -3.2619    2.1888   -1.2752 O   0  0  0  0  0  0  0  0  0  0  0  0
   -1.2776    1.7132   -0.2231 N   0  0  0  0  0  0  0  0  0  0  0  0
   -1.0842    0.3498   -0.6833 C   0  0  2  0  0  0  0  0  0  0  0  0
   -1.9111   -0.6066    0.1774 C   0  0  0  0  0  0  0  0  0  0  0  0
   -2.9721   -1.3304   -0.3899 C   0  0  0  0  0  0  0  0  0  0  0  0
   -3.7287   -2.1994    0.3961 C   0  0  0  0  0  0  0  0  0  0  0  0
   -3.4466   -2.3606    1.7519 C   0  0  0  0  0  0  0  0  0  0  0  0
   -2.3992   -1.6439    2.3278 C   0  0  0  0  0  0  0  0  0  0  0  0
   -1.6390   -0.7719    1.5469 C   0  0  0  0  0  0  0  0  0  0  0  0
   -5.1536   -3.1711   -0.3822 Br  0  0  0  0  0  0  0  0  0  0  0  0
    0.4100   -0.0173   -0.7015 C   0  0  0  0  0  0  0  0  0  0  0  0
    1.3876    0.6060    0.0241 C   0  0  0  0  0  0  0  0  0  0  0  0
    1.2281    1.5777    0.8289 O   0  0  0  0  0  0  0  0  0  0  0  0
    2.7615    0.0357   -0.1803 C   0  0  0  0  0  0  0  0  0  0  0  0
    3.8900    0.5581    0.4819 C   0  0  0  0  0  0  0  0  0  0  0  0
    5.1702    0.0209    0.2980 C   0  0  0  0  0  0  0  0  0  0  0  0
    5.3536   -1.0597   -0.5583 C   0  0  0  0  0  0  0  0  0  0  0  0
    4.2562   -1.5947   -1.2253 C   0  0  0  0  0  0  0  0  0  0  0  0
    2.9847   -1.0418   -1.0278 C   0  0  0  0  0  0  0  0  0  0  0  0
    1.9464   -1.6381   -1.7438 O   0  0  0  0  0  0  0  0  0  0  0  0
    0.6605   -1.1450   -1.6440 C   0  0  0  0  0  0  0  0  0  0  0  0
   -0.2284   -1.6459   -2.3319 O   0  0  0  0  0  0  0  0  0  0  0  0
   -1.6355    4.5257   -0.5639 H   0  0  0  0  0  0  0  0  0  0  0  0
   -1.7982    3.8337    1.0725 H   0  0  0  0  0  0  0  0  0  0  0  0
   -3.2494    4.3054    0.1668 H   0  0  0  0  0  0  0  0  0  0  0  0
   -0.4921    2.0527    0.3461 H   0  0  0  0  0  0  0  0  0  0  0  0
   -1.4689    0.3393   -1.7116 H   0  0  0  0  0  0  0  0  0  0  0  0
   -3.1987   -1.2068   -1.4466 H   0  0  0  0  0  0  0  0  0  0  0  0
   -4.0339   -3.0369    2.3647 H   0  0  0  0  0  0  0  0  0  0  0  0
   -2.1685   -1.7579    3.3829 H   0  0  0  0  0  0  0  0  0  0  0  0
   -0.8227   -0.2119    2.0047 H   0  0  0  0  0  0  0  0  0  0  0  0
    3.7646    1.4026    1.1575 H   0  0  0  0  0  0  0  0  0  0  0  0
    6.0123    0.4542    0.8287 H   0  0  0  0  0  0  0  0  0  0  0  0
    6.3429   -1.4808   -0.7049 H   0  0  0  0  0  0  0  0  0  0  0  0
    4.3798   -2.4369   -1.8986 H   0  0  0  0  0  0  0  0  0  0  0  0
  1  2  1  0
  2  3  2  0
  2  4  1  0
  4  5  1  0
  5  6  1  0
  6  7  1  0
  7  8  2  0
  8  9  1  0
  9 10  2  0
 10 11  1  0
  8 12  1  0
  5 13  1  0
 13 14  2  0
 14 15  1  0
 14 16  1  0
 16 17  2  0
 17 18  1  0
 18 19  2  0
 19 20  1  0
 20 21  2  0
 21 22  1  0
 22 23  1  0
 23 24  2  0
 11  6  2  0
 23 13  1  0
 21 16  1  0
  1 25  1  0
  1 26  1  0
  1 27  1  0
  4 28  1  0
  5 29  1  6
  7 30  1  0
  9 31  1  0
 10 32  1  0
 11 33  1  0
 17 34  1  0
 18 35  1  0
 19 36  1  0
 20 37  1  0
M  CHG  1  15  -1
M  END
$$$$
