
     RDKit          3D

 37 39  0  0  0  0  0  0  0  0999 V2000
    2.8680    3.2969    1.0108 C   0  0  0  0  0  0  0  0  0  0  0  0
    2.6150    2.2804   -0.0689 C   0  0  0  0  0  0  0  0  0  0  0  0
    3.3423    2.1853   -1.0540 O   0  0  0  0  0  0  0  0  0  0  0  0
    1.5026    1.5285    0.1522 N   0  0  0  0  0  0  0  0  0  0  0  0
    1.0032    0.4839   -0.7240 C   0  0  1  0  0  0  0  0  0  0  0  0
    1.7797   -0.8105   -0.4771 C   0  0  0  0  0  0  0  0  0  0  0  0
    2.5926   -1.3507   -1.4864 C   0  0  0  0  0  0  0  0  0  0  0  0
    3.3038   -2.5289   -1.2596 C   0  0  0  0  0  0  0  0  0  0  0  0
    3.2214   -3.1846   -0.0320 C   0  0  0  0  0  0  0  0  0  0  0  0
    2.4220   -2.6555    0.9796 C   0  0  0  0  0  0  0  0  0  0  0  0
    1.7085   -1.4763    0.7593 C   0  0  0  0  0  0  0  0  0  0  0  0
    4.3929   -3.2477   -2.6298 Br  0  0  0  0  0  0  0  0  0  0  0  0
   -0.5150    0.3014   -0.5518 C   0  0  0  0  0  0  0  0  0  0  0  0
   -1.2387    0.6792    0.5456 C   0  0  0  0  0  0  0  0  0  0  0  0
   -0.7845    1.2331    1.5964 O   0  0  0  0  0  0  0  0  0  0  0  0
   -2.7054    0.3731    0.4485 C   0  0  0  0  0  0  0  0  0  0  0  0
   -3.6035    0.6985    1.4841 C   0  0  0  0  0  0  0  0  0  0  0  0
   -4.9702    0.4053    1.3975 C   0  0  0  0  0  0  0  0  0  0  0  0
   -5.4749   -0.2253    0.2652 C   0  0  0  0  0  0  0  0  0  0  0  0
   -4.6100   -0.5573   -0.7726 C   0  0  0  0  0  0  0  0  0  0  0  0
   -3.2468   -0.2543   -0.6661 C   0  0  0  0  0  0  0  0  0  0  0  0
   -2.4579   -0.6171   -1.7580 O   0  0  0  0  0  0  0  0  0  0  0  0
   -1.1070   -0.3315   -1.7649 C   0  0  0  0  0  0  0  0  0  0  0  0
   -0.4420   -0.6038   -2.7639 O   0  0  0  0  0  0  0  0  0  0  0  0
    3.9317    3.5496    1.0318 H   0  0  0  0  0  0  0  0  0  0  0  0
    2.2839    4.1971    0.8019 H   0  0  0  0  0  0  0  0  0  0  0  0
    2.5868    2.9023    1.9915 H   0  0  0  0  0  0  0  0  0  0  0  0
    0.8909    1.6901    0.9620 H   0  0  0  0  0  0  0  0  0  0  0  0
    1.2084    0.8433   -1.7409 H   0  0  0  0  0  0  0  0  0  0  0  0
    2.6630   -0.8423   -2.4454 H   0  0  0  0  0  0  0  0  0  0  0  0
    3.7737   -4.1018    0.1458 H   0  0  0  0  0  0  0  0  0  0  0  0
    2.3490   -3.1543    1.9415 H   0  0  0  0  0  0  0  0  0  0  0  0
    1.0871   -1.0662    1.5563 H   0  0  0  0  0  0  0  0  0  0  0  0
   -3.2254    1.1906    2.3787 H   0  0  0  0  0  0  0  0  0  0  0  0
   -5.6268    0.6734    2.2194 H   0  0  0  0  0  0  0  0  0  0  0  0
   -6.5328   -0.4556    0.1920 H   0  0  0  0  0  0  0  0  0  0  0  0
   -4.9855   -1.0483   -1.6647 H   0  0  0  0  0  0  0  0  0  0  0  0
  1  2  1  0
  2  3  2  0
  2  4  1  0
  4  5  1  0
  5  6  1  0
  6  7  1  0
  7  8  2  0
  8  9  1  0
  9 10  2  0
 10 11  1  0
  8 12  1  0
  5 13  1  0
 13 14  2  0
 14 15  1  0
 14 16  1  0
 16 17  2  0
 17 18  1  0
 18 19  2  0
 19 20  1  0
 20 21  2  0
 21 22  1  0
 22 23  1  0
 23 24  2  0
 11  6  2  0
 23 13  1  0
 21 16  1  0
  1 25  1  0
  1 26  1  0
  1 27  1  0
  4 28  1  0
  5 29  1  6
  7 30  1  0
  9 31  1  0
 10 32  1  0
 11 33  1  0
 17 34  1  0
 18 35  1  0
 19 36  1  0
 20 37  1  0
M  CHG  1  15  -1
M  END
$$$$
