
     RDKit          3D

 39 41  0  0  0  0  0  0  0  0999 V2000
   -1.9087    4.0525    0.4093 C   0  0  0  0  0  0  0  0  0  0  0  0
   -1.9199    2.7895   -0.4075 C   0  0  0  0  0  0  0  0  0  0  0  0
   -2.7439    2.5978   -1.2977 O   0  0  0  0  0  0  0  0  0  0  0  0
   -0.9233    1.9248   -0.0750 N   0  0  0  0  0  0  0  0  0  0  0  0
   -0.6758    0.6424   -0.7086 C   0  0  2  0  0  0  0  0  0  0  0  0
   -1.6609   -0.3954   -0.1659 C   0  0  0  0  0  0  0  0  0  0  0  0
   -2.6314   -0.9591   -1.0107 C   0  0  0  0  0  0  0  0  0  0  0  0
   -3.5349   -1.9017   -0.5037 C   0  0  0  0  0  0  0  0  0  0  0  0
   -3.4857   -2.2912    0.8424 C   0  0  0  0  0  0  0  0  0  0  0  0
   -2.5275   -1.7300    1.6844 C   0  0  0  0  0  0  0  0  0  0  0  0
   -1.6260   -0.7890    1.1846 C   0  0  0  0  0  0  0  0  0  0  0  0
   -4.5479   -2.4913   -1.3871 N   0  0  0  0  0  0  0  0  0  0  0  0
   -5.3491   -3.2986   -0.8884 O   0  0  0  0  0  0  0  0  0  0  0  0
   -4.5534   -2.1580   -2.5810 O   0  0  0  0  0  0  0  0  0  0  0  0
    0.7900    0.2110   -0.5308 C   0  0  0  0  0  0  0  0  0  0  0  0
    1.6399    0.6752    0.4344 C   0  0  0  0  0  0  0  0  0  0  0  0
    1.3620    1.5232    1.3402 O   0  0  0  0  0  0  0  0  0  0  0  0
    3.0180    0.0823    0.3756 C   0  0  0  0  0  0  0  0  0  0  0  0
    4.0245    0.4471    1.2914 C   0  0  0  0  0  0  0  0  0  0  0  0
    5.3086   -0.1093    1.2394 C   0  0  0  0  0  0  0  0  0  0  0  0
    5.6189   -1.0507    0.2636 C   0  0  0  0  0  0  0  0  0  0  0  0
    4.6436   -1.4287   -0.6535 C   0  0  0  0  0  0  0  0  0  0  0  0
    3.3658   -0.8596   -0.5842 C   0  0  0  0  0  0  0  0  0  0  0  0
    2.4547   -1.2958   -1.5467 O   0  0  0  0  0  0  0  0  0  0  0  0
    1.1737   -0.7824   -1.5735 C   0  0  0  0  0  0  0  0  0  0  0  0
    0.3941   -1.1574   -2.4487 O   0  0  0  0  0  0  0  0  0  0  0  0
   -1.6089    3.8466    1.4410 H   0  0  0  0  0  0  0  0  0  0  0  0
   -2.9114    4.4886    0.4209 H   0  0  0  0  0  0  0  0  0  0  0  0
   -1.2078    4.7635   -0.0362 H   0  0  0  0  0  0  0  0  0  0  0  0
   -0.2293    2.1495    0.6494 H   0  0  0  0  0  0  0  0  0  0  0  0
   -0.8729    0.8094   -1.7759 H   0  0  0  0  0  0  0  0  0  0  0  0
   -2.6689   -0.6507   -2.0544 H   0  0  0  0  0  0  0  0  0  0  0  0
   -4.1811   -3.0222    1.2466 H   0  0  0  0  0  0  0  0  0  0  0  0
   -2.4759   -2.0180    2.7310 H   0  0  0  0  0  0  0  0  0  0  0  0
   -0.8824   -0.3507    1.8525 H   0  0  0  0  0  0  0  0  0  0  0  0
    3.7993    1.1821    2.0624 H   0  0  0  0  0  0  0  0  0  0  0  0
    6.0545    0.2004    1.9649 H   0  0  0  0  0  0  0  0  0  0  0  0
    6.6121   -1.4854    0.2181 H   0  0  0  0  0  0  0  0  0  0  0  0
    4.8676   -2.1609   -1.4226 H   0  0  0  0  0  0  0  0  0  0  0  0
  1  2  1  0
  2  3  2  0
  2  4  1  0
  4  5  1  0
  5  6  1  0
  6  7  1  0
  7  8  2  0
  8  9  1  0
  9 10  2  0
 10 11  1  0
  8 12  1  0
 12 13  2  0
 12 14  1  0
  5 15  1  0
 15 16  2  0
 16 17  1  0
 16 18  1  0
 18 19  2  0
 19 20  1  0
 20 21  2  0
 21 22  1  0
 22 23  2  0
 23 24  1  0
 24 25  1  0
 25 26  2  0
 11  6  2  0
 25 15  1  0
 23 18  1  0
  1 27  1  0
  1 28  1  0
  1 29  1  0
  4 30  1  0
  5 31  1  6
  7 32  1  0
  9 33  1  0
 10 34  1  0
 11 35  1  0
 19 36  1  0
 20 37  1  0
 21 38  1  0
 22 39  1  0
M  CHG  3  12   1  14  -1  17  -1
M  END
$$$$
