
     RDKit          3D

 39 41  0  0  0  0  0  0  0  0999 V2000
   -1.5800    4.2029   -0.2697 C   0  0  0  0  0  0  0  0  0  0  0  0
   -1.8228    2.8600    0.3628 C   0  0  0  0  0  0  0  0  0  0  0  0
   -2.8220    2.6303    1.0388 O   0  0  0  0  0  0  0  0  0  0  0  0
   -0.8227    1.9670    0.1304 N   0  0  0  0  0  0  0  0  0  0  0  0
   -0.7756    0.6065    0.6341 C   0  0  1  0  0  0  0  0  0  0  0  0
   -1.6766   -0.2876   -0.2209 C   0  0  0  0  0  0  0  0  0  0  0  0
   -2.8279   -0.8698    0.3349 C   0  0  0  0  0  0  0  0  0  0  0  0
   -3.6518   -1.6795   -0.4572 C   0  0  0  0  0  0  0  0  0  0  0  0
   -3.3436   -1.9169   -1.8043 C   0  0  0  0  0  0  0  0  0  0  0  0
   -2.2050   -1.3366   -2.3601 C   0  0  0  0  0  0  0  0  0  0  0  0
   -1.3816   -0.5275   -1.5757 C   0  0  0  0  0  0  0  0  0  0  0  0
   -4.8540   -2.2885    0.1243 N   0  0  0  0  0  0  0  0  0  0  0  0
   -5.5731   -2.9727   -0.6222 O   0  0  0  0  0  0  0  0  0  0  0  0
   -5.0907   -2.0929    1.3252 O   0  0  0  0  0  0  0  0  0  0  0  0
    0.6721    0.0906    0.7004 C   0  0  0  0  0  0  0  0  0  0  0  0
    1.7256    0.5967   -0.0090 C   0  0  0  0  0  0  0  0  0  0  0  0
    1.6839    1.5599   -0.8381 O   0  0  0  0  0  0  0  0  0  0  0  0
    3.0305   -0.0994    0.2492 C   0  0  0  0  0  0  0  0  0  0  0  0
    4.2219    0.2910   -0.3933 C   0  0  0  0  0  0  0  0  0  0  0  0
    5.4383   -0.3612   -0.1558 C   0  0  0  0  0  0  0  0  0  0  0  0
    5.4924   -1.4272    0.7359 C   0  0  0  0  0  0  0  0  0  0  0  0
    4.3306   -1.8332    1.3844 C   0  0  0  0  0  0  0  0  0  0  0  0
    3.1247   -1.1670    1.1330 C   0  0  0  0  0  0  0  0  0  0  0  0
    2.0133   -1.6404    1.8310 O   0  0  0  0  0  0  0  0  0  0  0  0
    0.7815   -1.0400    1.6653 C   0  0  0  0  0  0  0  0  0  0  0  0
   -0.1803   -1.4528    2.3125 O   0  0  0  0  0  0  0  0  0  0  0  0
   -2.5357    4.7107   -0.4265 H   0  0  0  0  0  0  0  0  0  0  0  0
   -1.0833    4.0934   -1.2381 H   0  0  0  0  0  0  0  0  0  0  0  0
   -0.9524    4.8050    0.3928 H   0  0  0  0  0  0  0  0  0  0  0  0
    0.0168    2.2202   -0.4064 H   0  0  0  0  0  0  0  0  0  0  0  0
   -1.1815    0.6658    1.6527 H   0  0  0  0  0  0  0  0  0  0  0  0
   -3.0660   -0.6794    1.3803 H   0  0  0  0  0  0  0  0  0  0  0  0
   -3.9751   -2.5439   -2.4281 H   0  0  0  0  0  0  0  0  0  0  0  0
   -1.9516   -1.5074   -3.4030 H   0  0  0  0  0  0  0  0  0  0  0  0
   -0.4948   -0.0727   -2.0207 H   0  0  0  0  0  0  0  0  0  0  0  0
    4.1982    1.1231   -1.0951 H   0  0  0  0  0  0  0  0  0  0  0  0
    6.3328   -0.0275   -0.6726 H   0  0  0  0  0  0  0  0  0  0  0  0
    6.4319   -1.9366    0.9243 H   0  0  0  0  0  0  0  0  0  0  0  0
    4.3537   -2.6623    2.0845 H   0  0  0  0  0  0  0  0  0  0  0  0
  1  2  1  0
  2  3  2  0
  2  4  1  0
  4  5  1  0
  5  6  1  0
  6  7  1  0
  7  8  2  0
  8  9  1  0
  9 10  2  0
 10 11  1  0
  8 12  1  0
 12 13  2  0
 12 14  1  0
  5 15  1  0
 15 16  2  0
 16 17  1  0
 16 18  1  0
 18 19  2  0
 19 20  1  0
 20 21  2  0
 21 22  1  0
 22 23  2  0
 23 24  1  0
 24 25  1  0
 25 26  2  0
 11  6  2  0
 25 15  1  0
 23 18  1  0
  1 27  1  0
  1 28  1  0
  1 29  1  0
  4 30  1  0
  5 31  1  1
  7 32  1  0
  9 33  1  0
 10 34  1  0
 11 35  1  0
 19 36  1  0
 20 37  1  0
 21 38  1  0
 22 39  1  0
M  CHG  3  12   1  14  -1  17  -1
M  END
$$$$
