
     RDKit          3D

 38 40  0  0  0  0  0  0  0  0999 V2000
   -0.1237    3.3947    1.4403 C   0  0  0  0  0  0  0  0  0  0  0  0
   -1.2338    2.4872    1.8940 C   0  0  0  0  0  0  0  0  0  0  0  0
   -1.6304    2.5225    3.0649 O   0  0  0  0  0  0  0  0  0  0  0  0
   -1.8407    1.5213    0.8998 C   0  0  0  0  0  0  0  0  0  0  0  0
   -1.1813    0.1278    0.9718 C   0  0  1  0  0  0  0  0  0  0  0  0
   -2.1037   -0.9183    0.3290 C   0  0  0  0  0  0  0  0  0  0  0  0
   -2.6434   -1.9571    1.1038 C   0  0  0  0  0  0  0  0  0  0  0  0
   -3.4878   -2.9099    0.5298 C   0  0  0  0  0  0  0  0  0  0  0  0
   -3.8006   -2.8392   -0.8263 C   0  0  0  0  0  0  0  0  0  0  0  0
   -3.2649   -1.8191   -1.6097 C   0  0  0  0  0  0  0  0  0  0  0  0
   -2.4214   -0.8660   -1.0364 C   0  0  0  0  0  0  0  0  0  0  0  0
    0.2776   -0.0435    0.4920 C   0  0  0  0  0  0  0  0  0  0  0  0
    0.8501    0.6474   -0.5361 C   0  0  0  0  0  0  0  0  0  0  0  0
    0.2925    1.5158   -1.2719 O   0  0  0  0  0  0  0  0  0  0  0  0
    2.2893    0.2976   -0.7947 C   0  0  0  0  0  0  0  0  0  0  0  0
    3.0387    0.9293   -1.8079 C   0  0  0  0  0  0  0  0  0  0  0  0
    4.3783    0.6024   -2.0529 C   0  0  0  0  0  0  0  0  0  0  0  0
    5.0062   -0.3722   -1.2852 C   0  0  0  0  0  0  0  0  0  0  0  0
    4.2900   -1.0115   -0.2786 C   0  0  0  0  0  0  0  0  0  0  0  0
    2.9511   -0.6683   -0.0503 C   0  0  0  0  0  0  0  0  0  0  0  0
    2.3169   -1.3570    0.9813 O   0  0  0  0  0  0  0  0  0  0  0  0
    1.0061   -1.0707    1.3052 C   0  0  0  0  0  0  0  0  0  0  0  0
    0.4878   -1.6611    2.2532 O   0  0  0  0  0  0  0  0  0  0  0  0
   -0.0209    4.2193    2.1523 H   0  0  0  0  0  0  0  0  0  0  0  0
   -0.3645    3.8264    0.4663 H   0  0  0  0  0  0  0  0  0  0  0  0
    0.8193    2.8476    1.4041 H   0  0  0  0  0  0  0  0  0  0  0  0
   -1.8685    1.9699   -0.0955 H   0  0  0  0  0  0  0  0  0  0  0  0
   -2.9006    1.4360    1.1825 H   0  0  0  0  0  0  0  0  0  0  0  0
   -1.1811   -0.0792    2.0522 H   0  0  0  0  0  0  0  0  0  0  0  0
   -2.3939   -2.0326    2.1603 H   0  0  0  0  0  0  0  0  0  0  0  0
   -3.8919   -3.7098    1.1427 H   0  0  0  0  0  0  0  0  0  0  0  0
   -4.4515   -3.5830   -1.2749 H   0  0  0  0  0  0  0  0  0  0  0  0
   -3.4904   -1.7634   -2.6705 H   0  0  0  0  0  0  0  0  0  0  0  0
   -1.9930   -0.0834   -1.6627 H   0  0  0  0  0  0  0  0  0  0  0  0
    2.5623    1.6927   -2.4209 H   0  0  0  0  0  0  0  0  0  0  0  0
    4.9163    1.1140   -2.8449 H   0  0  0  0  0  0  0  0  0  0  0  0
    6.0434   -0.6316   -1.4698 H   0  0  0  0  0  0  0  0  0  0  0  0
    4.7622   -1.7748    0.3315 H   0  0  0  0  0  0  0  0  0  0  0  0
  1  2  1  0
  2  3  2  0
  2  4  1  0
  4  5  1  0
  5  6  1  0
  6  7  2  0
  7  8  1  0
  8  9  2  0
  9 10  1  0
 10 11  2  0
  5 12  1  0
 12 13  2  0
 13 14  1  0
 13 15  1  0
 15 16  2  0
 16 17  1  0
 17 18  2  0
 18 19  1  0
 19 20  2  0
 20 21  1  0
 21 22  1  0
 22 23  2  0
 11  6  1  0
 22 12  1  0
 20 15  1  0
  1 24  1  0
  1 25  1  0
  1 26  1  0
  4 27  1  0
  4 28  1  0
  5 29  1  1
  7 30  1  0
  8 31  1  0
  9 32  1  0
 10 33  1  0
 11 34  1  0
 16 35  1  0
 17 36  1  0
 18 37  1  0
 19 38  1  0
M  CHG  1  14  -1
M  END
$$$$
