
     RDKit          3D

 38 40  0  0  0  0  0  0  0  0999 V2000
   -0.2858    3.3391   -1.4904 C   0  0  0  0  0  0  0  0  0  0  0  0
   -1.3420    2.3609   -1.9257 C   0  0  0  0  0  0  0  0  0  0  0  0
   -1.7270    2.3391   -3.1007 O   0  0  0  0  0  0  0  0  0  0  0  0
   -1.9084    1.3956   -0.9073 C   0  0  0  0  0  0  0  0  0  0  0  0
   -1.1763    0.0372   -0.9293 C   0  0  2  0  0  0  0  0  0  0  0  0
   -2.0498   -1.0355   -0.2625 C   0  0  0  0  0  0  0  0  0  0  0  0
   -2.3847   -0.9578    1.0976 C   0  0  0  0  0  0  0  0  0  0  0  0
   -3.1835   -1.9358    1.6927 C   0  0  0  0  0  0  0  0  0  0  0  0
   -3.6565   -3.0064    0.9369 C   0  0  0  0  0  0  0  0  0  0  0  0
   -3.3256   -3.1024   -0.4134 C   0  0  0  0  0  0  0  0  0  0  0  0
   -2.5259   -2.1248   -1.0091 C   0  0  0  0  0  0  0  0  0  0  0  0
    0.2842   -0.0423   -0.4308 C   0  0  0  0  0  0  0  0  0  0  0  0
    0.8086    0.7092    0.5804 C   0  0  0  0  0  0  0  0  0  0  0  0
    0.1984    1.5695    1.2833 O   0  0  0  0  0  0  0  0  0  0  0  0
    2.2611    0.4437    0.8632 C   0  0  0  0  0  0  0  0  0  0  0  0
    2.9654    1.1449    1.8630 C   0  0  0  0  0  0  0  0  0  0  0  0
    4.3175    0.8966    2.1306 C   0  0  0  0  0  0  0  0  0  0  0  0
    5.0038   -0.0669    1.3997 C   0  0  0  0  0  0  0  0  0  0  0  0
    4.3331   -0.7737    0.4071 C   0  0  0  0  0  0  0  0  0  0  0  0
    2.9807   -0.5086    0.1557 C   0  0  0  0  0  0  0  0  0  0  0  0
    2.3946   -1.2612   -0.8596 O   0  0  0  0  0  0  0  0  0  0  0  0
    1.0743   -1.0544   -1.2045 C   0  0  0  0  0  0  0  0  0  0  0  0
    0.5979   -1.7003   -2.1382 O   0  0  0  0  0  0  0  0  0  0  0  0
   -0.5593    3.7875   -0.5328 H   0  0  0  0  0  0  0  0  0  0  0  0
    0.6841    2.8436   -1.4283 H   0  0  0  0  0  0  0  0  0  0  0  0
   -0.2184    4.1455   -2.2271 H   0  0  0  0  0  0  0  0  0  0  0  0
   -1.9704    1.8727    0.0731 H   0  0  0  0  0  0  0  0  0  0  0  0
   -2.9592    1.2460   -1.1969 H   0  0  0  0  0  0  0  0  0  0  0  0
   -1.1535   -0.2028   -2.0025 H   0  0  0  0  0  0  0  0  0  0  0  0
   -2.0047   -0.1347    1.7029 H   0  0  0  0  0  0  0  0  0  0  0  0
   -3.4231   -1.8592    2.7491 H   0  0  0  0  0  0  0  0  0  0  0  0
   -4.2725   -3.7692    1.4026 H   0  0  0  0  0  0  0  0  0  0  0  0
   -3.6806   -3.9411   -1.0045 H   0  0  0  0  0  0  0  0  0  0  0  0
   -2.2613   -2.2197   -2.0604 H   0  0  0  0  0  0  0  0  0  0  0  0
    2.4431    1.9008    2.4472 H   0  0  0  0  0  0  0  0  0  0  0  0
    4.8193    1.4600    2.9110 H   0  0  0  0  0  0  0  0  0  0  0  0
    6.0511   -0.2655    1.6020 H   0  0  0  0  0  0  0  0  0  0  0  0
    4.8511   -1.5296   -0.1743 H   0  0  0  0  0  0  0  0  0  0  0  0
  1  2  1  0
  2  3  2  0
  2  4  1  0
  4  5  1  0
  5  6  1  0
  6  7  2  0
  7  8  1  0
  8  9  2  0
  9 10  1  0
 10 11  2  0
  5 12  1  0
 12 13  2  0
 13 14  1  0
 13 15  1  0
 15 16  2  0
 16 17  1  0
 17 18  2  0
 18 19  1  0
 19 20  2  0
 20 21  1  0
 21 22  1  0
 22 23  2  0
 11  6  1  0
 22 12  1  0
 20 15  1  0
  1 24  1  0
  1 25  1  0
  1 26  1  0
  4 27  1  0
  4 28  1  0
  5 29  1  6
  7 30  1  0
  8 31  1  0
  9 32  1  0
 10 33  1  0
 11 34  1  0
 16 35  1  0
 17 36  1  0
 18 37  1  0
 19 38  1  0
M  CHG  1  14  -1
M  END
$$$$
